
**** 11/16/24 13:03:50 *** PSpice 24.1.0 (4 September 2024) *** ID# 0 ********

 ** Profile: "SCHEMATIC1-sim"  [ C:\Users\Enach\Desktop\Proiect1\Proiect1_EnacheVictor-PSpiceFiles\SCHEMATIC1\sim.sim ] 


 ****     CIRCUIT DESCRIPTION


******************************************************************************




** Creating circuit file "sim.cir" 
** WARNING: THIS AUTOMATICALLY GENERATED FILE MAY BE OVERWRITTEN BY SUBSEQUENT SIMULATIONS

*Libraries: 
* Profile Libraries :
* Local Libraries :
.LIB "../../../biblioteci spice/bc846b.lib" 
.LIB "../../../biblioteci spice/bc856b.lib" 
.LIB "../../../biblioteci spice/opto.lib" 
.LIB "../../../biblioteci spice/bzx84c2v7.lib" 
.LIB "../../../biblioteci spice/mjd31cg.lib" 
* From [PSPICE NETLIST] section of C:\Users\Enach\AppData\Roaming\SPB_Data\cdssetup\OrCAD_PSpice\24.1.0\PSpice.ini file:
.lib "nom.lib" 

*Analysis directives: 
.DC LIN TEMP 0 150 1 
.OPTIONS ADVCONV
.PROBE64 V(alias(*)) I(alias(*)) W(alias(*)) D(alias(*)) NOISE(alias(*)) 
.INC "..\SCHEMATIC1.net" 



**** INCLUDING SCHEMATIC1.net ****
* source PROIECT1_ENACHEVICTOR
X_P1         N338965 N338935 N338799 POT PARAMS: SET={SET} VALUE=5k
Q_Q7         N339099 N339099 N339437 QBC846B 
R_R9         0 N338607  10k  
Q_Q5         N338413 N338961 N339219 QBC846B 
Q_Q9         N338607 N338413 N338069 QBC856B 
R_R4         N338651 N338409  22k  
X_P2         N339297 N338717 N338717 POT PARAMS: SET=0.21 VALUE=5k
R_R19         N338799 N338805  8.2k  
R_R21         0 N338965  10k  
Q_Q13         N338519 N339297 0 QBC846B 
R_R1         N338379 N338069  100  
D_D2         N338069 N338423 MLED81
R_R15         N338607 N338519  2.2k  
Q_Q12         N338519 N338183 N338637 QBC846B 
R_R25         N338983 N338069  680  
D_D3         N338637 N3392071 MLED81
V_V1         N338069 0 20Vdc
R_R3         N338409 N338069  10k  
R_R18         N338805 N338637  220  
Q_Q6         N338417 N338957 N339219 QBC846B 
Q_Q8         N339219 N339099 N3394051 QBC846B 
R_R17         0 N338637  {LOAD}  
Q_Q11         N338069 N338519 N338343 QBC846B 
Q_Q1         N338717 N338531 N338379 QBC856B 
R_R22         N338711 N338423  820  
Q_Q3         N338957 N338717 N338651 QBC856B 
R_R23         0 N3392071  820  
R_R24         0 N338711  1k  
R_R20         0 N338965  10k  
Q_Q10         N338069 N338343 N338183 QMJD31C 
R_R6         N338069 N338417  3.3k  
R_R16         N339297 0  1k  
R_R10         N339099 N338983  1.5k  
R_R5         N338069 N338413  3.3k  
R_R12         0 N338961  22k  
D_D1         0 N338717 BZX84-C2V7 
R_R13         N3382911 N338183  0.47  
Q_Q4         N338961 N338935 N338651 QBC856B 
R_R11         0 N338957  22k  
R_R8         0 N3394051  100  
Q_Q2         N338531 N338379 N338069 QBC856B 
R_R7         0 N339437  100  
R_R14         N338637 N3382911  1  
R_R2         0 N338531  10k  
.PARAM  load=400 set=0.5

**** RESUMING sim.cir ****
.END

**** 11/16/24 13:03:50 *** PSpice 24.1.0 (4 September 2024) *** ID# 0 ********

 ** Profile: "SCHEMATIC1-sim"  [ C:\Users\Enach\Desktop\Proiect1\Proiect1_EnacheVictor-PSpiceFiles\SCHEMATIC1\sim.sim ] 


 ****     Diode MODEL PARAMETERS


******************************************************************************




               MLED81          BZX84-C2V7      
          IS   10.000000E-09  110.880000E-18 
           N    1.1248           .92657      
         ISR   10.010000E-21    1.515900E-06 
         IKF   45.752000E-15  147.68         
          BV    5.4169          2.7639       
         IBV   10                .06977      
          RS    1.2366           .85899      
          TT    5.000000E-09   17.889000E-09 
         CJO   25.000000E-12  344.690000E-12 
          VJ     .75             .72935      
           M     .3333           .31964      


**** 11/16/24 13:03:50 *** PSpice 24.1.0 (4 September 2024) *** ID# 0 ********

 ** Profile: "SCHEMATIC1-sim"  [ C:\Users\Enach\Desktop\Proiect1\Proiect1_EnacheVictor-PSpiceFiles\SCHEMATIC1\sim.sim ] 


 ****     BJT MODEL PARAMETERS


******************************************************************************




               QBC846B         QBC856B         QMJD31C         
               NPN             PNP             NPN             
       LEVEL    1               1               1            
          IS   18.220000E-15   20.140000E-15   90.620200E-12 
          EG                                    1.05         
          BF  324.4           315.3             3.418700E+03 
          NF     .9932           .9974          1.17603      
         VAF   82              39.15           29.2393       
         IKF     .109            .079            .108267     
         ISE  289.400000E-18    6.578000E-15  537.193000E-09 
          NE    1.4             1.45            4            
          BR    8.29            8.68          367.353        
          NR     .9931           .9952          5            
         VAR   17.9             9.5             1.631        
         IKR     .09             .09            1.15207      
         ISC    9.982000E-12   16.330000E-15    1.157540E-09 
          NC    1.763           1.15            1.49179      
         ISS    0               0               0            
          RB   10              10              22.4853       
         RBM    5               5.000000E-06    1.000000E-12 
         IRB    5.000000E-06    5.000000E-06    2.209370E-03 
          RE     .649            .663         100.000000E-06 
          RC     .7014           .718            .138633     
         CJE   12.440000E-12   11.350000E-12  373.889000E-12 
         VJE     .7579           .7071           .67672      
         MJE     .3656           .3808           .575056     
         CJC    3.347000E-12    6.395000E-12  352.510000E-12 
         VJC     .5463           .4951           .884306     
         MJC     .391            .44             .473486     
        XCJC     .6193           .6288           .1          
         CJS    0               0               0            
         VJS     .75             .75             .75         
         MJS     .333            .333            .5          
          FC     .979            .9059           .8          
          TF  490.800000E-12  654.600000E-12   10.000000E-09 
         XTF    9.51            5.387           3.4926       
         VTF    2.927           6.245          12.6615       
         ITF     .3131           .2108           .052395     
          TR   90.000000E-09   55.000000E-09    3.298030E-06 
         XTB                                  999.997000E-15 
         XTI                                    1.000000E-12 
          KF    0               0               0            
          AF    1               1               1            
          CN    2.42            2.2             2.42         
           D     .87             .52             .87         



          JOB CONCLUDED

**** 11/16/24 13:03:50 *** PSpice 24.1.0 (4 September 2024) *** ID# 0 ********

 ** Profile: "SCHEMATIC1-sim"  [ C:\Users\Enach\Desktop\Proiect1\Proiect1_EnacheVictor-PSpiceFiles\SCHEMATIC1\sim.sim ] 


 ****     JOB STATISTICS SUMMARY


******************************************************************************



  Total job time (using Solver 1)   =         .09
